504
Step: 0.01 Displacement_Number: 1 Supercell_Repetitions [nx, ny, nz] = [3, 3, 2] Cell parameters [a, b, c, alpha, beta, gamma]: [22.663134149075237, 22.663134149075233, 25.14851428466812, 90.0, 90.0, 120.00000000000001] Created by SlothPy from File/Group './Y.slt/YCo
Y       3.777300519000000      2.180644327600000      9.430707145600000
Y      -0.000122574100000      4.361636153700000      3.143578547300000
Co     -0.000004929900000     -0.000000705400000      6.287142583600000
Co     -0.000005738700000     -0.000001908100000      0.000014277800000
N       2.204969710100000      1.272122624800000      7.942051440300000
N       5.349817102600000      1.272556068400000      7.942128998000000
N       3.777792914900000      3.996426202600000      7.941745863600000
N       1.572200205300000      5.270172232600000      1.654922799800000
N      -1.572646918800000      5.269711859600000      1.655001388000000
N      -0.000600136200000      2.545854837900000      1.654616752500000
N      -0.000613305500000      2.545855563200000      4.632539860100000
N      -1.572637530200000      5.269726489900000      4.632156576400000
N       1.572209192100000      5.270159603200000      4.632233623400000
N       3.777777132200000      3.996424607000000     10.919669184000000
N       5.349824101500000      1.272567127800000     10.919284195299999
N       2.204977672400000      1.272107113300000     10.919362906300000
C       1.343775974300000      0.775538232700000      7.325190489600000
C       6.210815726200000      0.775473242800000      7.325394374900000
C       3.777255745500000      4.990461588000000      7.324759048200000
C       2.433396884200000      5.766751733700000      1.038062041300000
C      -2.433642938600000      5.766799058000000      1.038266685500000
C      -0.000067702300000      1.551819257300000      1.037630291000000
C      -0.000076407100000      1.551820013400000      5.249526357600000
C      -2.433636502300000      5.766809080800000      5.248890894500000
C       2.433403130400000      5.766743810500000      5.249094470400000
C       3.777245080800000      4.990460223000000     11.536655623200000
C       6.210820246100000      0.775480232200000     11.536018999500000
C       1.343780900500000      0.775527731400000     11.536223670200000
Y       3.777300519000000      2.180644327600000     22.004964287934058
Y      -0.000122574100000      4.361636153700000     15.717835689634061
Co     -0.000004929900000     -0.000000705400000     18.861399725934060
Co     -0.000005738700000     -0.000001908100000     12.574271420134060
N       2.204969710100000      1.272122624800000     20.516308582634061
N       5.349817102600000      1.272556068400000     20.516386140334060
N       3.777792914900000      3.996426202600000     20.516003005934060
N       1.572200205300000      5.270172232600000     14.229179942134060
N      -1.572646918800000      5.269711859600000     14.229258530334061
N      -0.000600136200000      2.545854837900000     14.228873894834059
N      -0.000613305500000      2.545855563200000     17.206797002434058
N      -1.572637530200000      5.269726489900000     17.206413718734062
N       1.572209192100000      5.270159603200000     17.206490765734060
N       3.777777132200000      3.996424607000000     23.493926326334062
N       5.349824101500000      1.272567127800000     23.493541337634060
N       2.204977672400000      1.272107113300000     23.493620048634060
C       1.343775974300000      0.775538232700000     19.899447631934059
C       6.210815726200000      0.775473242800000     19.899651517234062
C       3.777255745500000      4.990461588000000     19.899016190534059
C       2.433396884200000      5.766751733700000     13.612319183634060
C      -2.433642938600000      5.766799058000000     13.612523827834060
C      -0.000067702300000      1.551819257300000     13.611887433334060
C      -0.000076407100000      1.551820013400000     17.823783499934059
C      -2.433636502300000      5.766809080800000     17.823148036834059
C       2.433403130400000      5.766743810500000     17.823351612734061
C       3.777245080800000      4.990460223000000     24.110912765534060
C       6.210820246100000      0.775480232200000     24.110276141834060
C       1.343780900500000      0.775527731400000     24.110480812534060
Y       0.000111494154127      8.722927628424593      9.430707145600000
Y      -3.777311598945873     10.903919454524594      3.143578547300000
Co     -3.777193954745873      6.542282595424593      6.287142583600000
Co     -3.777194763545873      6.542281392724593      0.000014277800000
N      -1.572219314745873      7.814405925624593      7.942051440300000
N       1.572628077754127      7.814839369224593      7.942128998000000
N       0.000603890054127     10.538709503424593      7.941745863600000
N      -2.204988819545873     11.812455533424593      1.654922799800000
N      -5.349835943645873     11.811995160424594      1.655001388000000
N      -3.777789161045873      9.088138138724593      1.654616752500000
N      -3.777802330345873      9.088138864024593      4.632539860100000
N      -5.349826555045873     11.812009790724593      4.632156576400000
N      -2.204979832745873     11.812442904024593      4.632233623400000
N       0.000588107354127     10.538707907824593     10.919669184000000
N       1.572635076654127      7.814850428624593     10.919284195299999
N      -1.572211352445873      7.814390414124593     10.919362906300000
C      -2.433413050545873      7.317821533524593      7.325190489600000
C       2.433626701354127      7.317756543624593      7.325394374900000
C       0.000066720654127     11.532744888824592      7.324759048200000
C      -1.343792140645873     12.309035034524593      1.038062041300000
C      -6.210831963445873     12.309082358824593      1.038266685500000
C      -3.777256727145873      8.094102558124593      1.037630291000000
C      -3.777265431945873      8.094103314224594      5.249526357600000
C      -6.210825527145873     12.309092381624593      5.248890894500000
C      -1.343785894445873     12.309027111324593      5.249094470400000
C       0.000056055954127     11.532743523824593     11.536655623200000
C       2.433631221254127      7.317763533024593     11.536018999500000
C      -2.433408124345873      7.317811032224594     11.536223670200000
Y       0.000111494154127      8.722927628424593     22.004964287934058
Y      -3.777311598945873     10.903919454524594     15.717835689634061
Co     -3.777193954745873      6.542282595424593     18.861399725934060
Co     -3.777194763545873      6.542281392724593     12.574271420134060
N      -1.572219314745873      7.814405925624593     20.516308582634061
N       1.572628077754127      7.814839369224593     20.516386140334060
N       0.000603890054127     10.538709503424593     20.516003005934060
N      -2.204988819545873     11.812455533424593     14.229179942134060
N      -5.349835943645873     11.811995160424594     14.229258530334061
N      -3.777789161045873      9.088138138724593     14.228873894834059
N      -3.777802330345873      9.088138864024593     17.206797002434058
N      -5.349826555045873     11.812009790724593     17.206413718734062
N      -2.204979832745873     11.812442904024593     17.206490765734060
N       0.000588107354127     10.538707907824593     23.493926326334062
N       1.572635076654127      7.814850428624593     23.493541337634060
N      -1.572211352445873      7.814390414124593     23.493620048634060
C      -2.433413050545873      7.317821533524593     19.899447631934059
C       2.433626701354127      7.317756543624593     19.899651517234062
C       0.000066720654127     11.532744888824592     19.899016190534059
C      -1.343792140645873     12.309035034524593     13.612319183634060
C      -6.210831963445873     12.309082358824593     13.612523827834060
C      -3.777256727145873      8.094102558124593     13.611887433334060
C      -3.777265431945873      8.094103314224594     17.823783499934059
C      -6.210825527145873     12.309092381624593     17.823148036834059
C      -1.343785894445873     12.309027111324593     17.823351612734061
C       0.000056055954127     11.532743523824593     24.110912765534060
C       2.433631221254127      7.317763533024593     24.110276141834060
C      -2.433408124345873      7.317811032224594     24.110480812534060
Y      -3.777077530691745     15.265210929249186      9.430707145600000
Y      -7.554500623791745     17.446202755349187      3.143578547300000
Co     -7.554382979591746     13.084565896249186      6.287142583600000
Co     -7.554383788391745     13.084564693549186      0.000014277800000
N      -5.349408339591745     14.356689226449186      7.942051440300000
N      -2.204560947091745     14.357122670049186      7.942128998000000
N      -3.776585134791746     17.080992804249185      7.941745863600000
N      -5.982177844391746     18.354738834249186      1.654922799800000
N      -9.127024968491746     18.354278461249187      1.655001388000000
N      -7.554978185891746     15.630421439549187      1.654616752500000
N      -7.554991355191746     15.630422164849186      4.632539860100000
N      -9.127015579891745     18.354293091549188      4.632156576400000
N      -5.982168857591746     18.354726204849186      4.632233623400000
N      -3.776600917491745     17.080991208649188     10.919669184000000
N      -2.204553948191745     14.357133729449187     10.919284195299999
N      -5.349400377291746     14.356673714949187     10.919362906300000
C      -6.210602075391746     13.860104834349187      7.325190489600000
C      -1.343562323491746     13.860039844449187      7.325394374900000
C      -3.777122304191745     18.075028189649185      7.324759048200000
C      -5.120981165491745     18.851318335349184      1.038062041300000
C      -9.988020988291746     18.851365659649186      1.038266685500000
C      -7.554445751991746     14.636385858949186      1.037630291000000
C      -7.554454456791746     14.636386615049187      5.249526357600000
C      -9.988014551991746     18.851375682449188      5.248890894500000
C      -5.120974919291745     18.851310412149186      5.249094470400000
C      -3.777132968891745     18.075026824649186     11.536655623200000
C      -1.343557803591746     13.860046833849186     11.536018999500000
C      -6.210597149191745     13.860094333049187     11.536223670200000
Y      -3.777077530691745     15.265210929249186     22.004964287934058
Y      -7.554500623791745     17.446202755349187     15.717835689634061
Co     -7.554382979591746     13.084565896249186     18.861399725934060
Co     -7.554383788391745     13.084564693549186     12.574271420134060
N      -5.349408339591745     14.356689226449186     20.516308582634061
N      -2.204560947091745     14.357122670049186     20.516386140334060
N      -3.776585134791746     17.080992804249185     20.516003005934060
N      -5.982177844391746     18.354738834249186     14.229179942134060
N      -9.127024968491746     18.354278461249187     14.229258530334061
N      -7.554978185891746     15.630421439549187     14.228873894834059
N      -7.554991355191746     15.630422164849186     17.206797002434058
N      -9.127015579891745     18.354293091549188     17.206413718734062
N      -5.982168857591746     18.354726204849186     17.206490765734060
N      -3.776600917491745     17.080991208649188     23.493926326334062
N      -2.204553948191745     14.357133729449187     23.493541337634060
N      -5.349400377291746     14.356673714949187     23.493620048634060
C      -6.210602075391746     13.860104834349187     19.899447631934059
C      -1.343562323491746     13.860039844449187     19.899651517234062
C      -3.777122304191745     18.075028189649185     19.899016190534059
C      -5.120981165491745     18.851318335349184     13.612319183634060
C      -9.988020988291746     18.851365659649186     13.612523827834060
C      -7.554445751991746     14.636385858949186     13.611887433334060
C      -7.554454456791746     14.636386615049187     17.823783499934059
C      -9.988014551991746     18.851375682449188     17.823148036834059
C      -5.120974919291745     18.851310412149186     17.823351612734061
C      -3.777132968891745     18.075026824649186     24.110912765534060
C      -1.343557803591746     13.860046833849186     24.110276141834060
C      -6.210597149191745     13.860094333049187     24.110480812534060
Y      11.331678568691746      2.180644327600000      9.430707145600000
Y       7.554255475591746      4.361636153700000      3.143578547300000
Co      7.554373119791745     -0.000000705400000      6.287142583600000
Co      7.554372310991746     -0.000001908100000      0.000014277800000
N       9.759347759791746      1.272122624800000      7.942051440300000
N      12.904195152291745      1.272556068400000      7.942128998000000
N      11.332170964591747      3.996426202600000      7.941745863600000
N       9.126578254991745      5.270172232600000      1.654922799800000
N       5.981731130891745      5.269711859600000      1.655001388000000
N       7.553777913491746      2.545854837900000      1.654616752500000
N       7.553764744191746      2.545855563200000      4.632539860100000
N       5.981740519491746      5.269726489900000      4.632156576400000
N       9.126587241791746      5.270159603200000      4.632233623400000
N      11.332155181891746      3.996424607000000     10.919669184000000
N      12.904202151191747      1.272567127800000     10.919284195299999
N       9.759355722091746      1.272107113300000     10.919362906300000
C       8.898154023991745      0.775538232700000      7.325190489600000
C      13.765193775891746      0.775473242800000      7.325394374900000
C      11.331633795191745      4.990461588000000      7.324759048200000
C       9.987774933891746      5.766751733700000      1.038062041300000
C       5.120735111091745      5.766799058000000      1.038266685500000
C       7.554310347391746      1.551819257300000      1.037630291000000
C       7.554301642591746      1.551820013400000      5.249526357600000
C       5.120741547391745      5.766809080800000      5.248890894500000
C       9.987781180091746      5.766743810500000      5.249094470400000
C      11.331623130491746      4.990460223000000     11.536655623200000
C      13.765198295791745      0.775480232200000     11.536018999500000
C       8.898158950191746      0.775527731400000     11.536223670200000
Y      11.331678568691746      2.180644327600000     22.004964287934058
Y       7.554255475591746      4.361636153700000     15.717835689634061
Co      7.554373119791745     -0.000000705400000     18.861399725934060
Co      7.554372310991746     -0.000001908100000     12.574271420134060
N       9.759347759791746      1.272122624800000     20.516308582634061
N      12.904195152291745      1.272556068400000     20.516386140334060
N      11.332170964591747      3.996426202600000     20.516003005934060
N       9.126578254991745      5.270172232600000     14.229179942134060
N       5.981731130891745      5.269711859600000     14.229258530334061
N       7.553777913491746      2.545854837900000     14.228873894834059
N       7.553764744191746      2.545855563200000     17.206797002434058
N       5.981740519491746      5.269726489900000     17.206413718734062
N       9.126587241791746      5.270159603200000     17.206490765734060
N      11.332155181891746      3.996424607000000     23.493926326334062
N      12.904202151191747      1.272567127800000     23.493541337634060
N       9.759355722091746      1.272107113300000     23.493620048634060
C       8.898154023991745      0.775538232700000     19.899447631934059
C      13.765193775891746      0.775473242800000     19.899651517234062
C      11.331633795191745      4.990461588000000     19.899016190534059
C       9.987774933891746      5.766751733700000     13.612319183634060
C       5.120735111091745      5.766799058000000     13.612523827834060
C       7.554310347391746      1.551819257300000     13.611887433334060
C       7.554301642591746      1.551820013400000     17.823783499934059
C       5.120741547391745      5.766809080800000     17.823148036834059
C       9.987781180091746      5.766743810500000     17.823351612734061
C      11.331623130491746      4.990460223000000     24.110912765534060
C      13.765198295791745      0.775480232200000     24.110276141834060
C       8.898158950191746      0.775527731400000     24.110480812534060
Y       7.554489543845873      8.722927628424593      9.430707145600000
Y       3.777066450745873     10.903919454524594      3.143578547300000
Co      3.777184094945873      6.542282595424593      6.287142583600000
Co      3.777183286145873      6.542281392724593      0.000014277800000
N       5.982158734945873      7.814405925624593      7.942051440300000
N       9.127006127445874      7.814839369224593      7.942128998000000
N       7.554981939745873     10.538709503424593      7.941745863600000
N       5.349389230145873     11.812455533424593      1.654922799800000
N       2.204542106045873     11.811995160424594      1.655001388000000
N       3.776588888645873      9.088138138724593      1.654616752500000
N       3.776575719345873      9.088138864024593      4.632539860100000
N       2.204551494645873     11.812009790724593      4.632156576400000
N       5.349398216945873     11.812442904024593      4.632233623400000
N       7.554966157045873     10.538707907824593     10.919669184000000
N       9.127013126345872      7.814850428624593     10.919284195299999
N       5.982166697245873      7.814390414124593     10.919362906300000
C       5.120964999145873      7.317821533524593      7.325190489600000
C       9.988004751045873      7.317756543624593      7.325394374900000
C       7.554444770345873     11.532744888824592      7.324759048200000
C       6.210585909045873     12.309035034524593      1.038062041300000
C       1.343546086245873     12.309082358824593      1.038266685500000
C       3.777121322545873      8.094102558124593      1.037630291000000
C       3.777112617745873      8.094103314224594      5.249526357600000
C       1.343552522545873     12.309092381624593      5.248890894500000
C       6.210592155245873     12.309027111324593      5.249094470400000
C       7.554434105645873     11.532743523824593     11.536655623200000
C       9.988009270945874      7.317763533024593     11.536018999500000
C       5.120969925345873      7.317811032224594     11.536223670200000
Y       7.554489543845873      8.722927628424593     22.004964287934058
Y       3.777066450745873     10.903919454524594     15.717835689634061
Co      3.777184094945873      6.542282595424593     18.861399725934060
Co      3.777183286145873      6.542281392724593     12.574271420134060
N       5.982158734945873      7.814405925624593     20.516308582634061
N       9.127006127445874      7.814839369224593     20.516386140334060
N       7.554981939745873     10.538709503424593     20.516003005934060
N       5.349389230145873     11.812455533424593     14.229179942134060
N       2.204542106045873     11.811995160424594     14.229258530334061
N       3.776588888645873      9.088138138724593     14.228873894834059
N       3.776575719345873      9.088138864024593     17.206797002434058
N       2.204551494645873     11.812009790724593     17.206413718734062
N       5.349398216945873     11.812442904024593     17.206490765734060
N       7.554966157045873     10.538707907824593     23.493926326334062
N       9.127013126345872      7.814850428624593     23.493541337634060
N       5.982166697245873      7.814390414124593     23.493620048634060
C       5.120964999145873      7.317821533524593     19.899447631934059
C       9.988004751045873      7.317756543624593     19.899651517234062
C       7.554444770345873     11.532744888824592     19.899016190534059
C       6.210585909045873     12.309035034524593     13.612319183634060
C       1.343546086245873     12.309082358824593     13.612523827834060
C       3.777121322545873      8.094102558124593     13.611887433334060
C       3.777112617745873      8.094103314224594     17.823783499934059
C       1.343552522545873     12.309092381624593     17.823148036834059
C       6.210592155245873     12.309027111324593     17.823351612734061
C       7.554434105645873     11.532743523824593     24.110912765534060
C       9.988009270945874      7.317763533024593     24.110276141834060
C       5.120969925345873      7.317811032224594     24.110480812534060
Y       3.777300519000000     15.265210929249186      9.430707145600000
Y      -0.000122574100000     17.446202755349187      3.143578547300000
Co     -0.000004929900000     13.084565896249186      6.287142583600000
Co     -0.000005738700000     13.084564693549186      0.000014277800000
N       2.204969710100000     14.356689226449186      7.942051440300000
N       5.349817102600000     14.357122670049186      7.942128998000000
N       3.777792914900000     17.080992804249185      7.941745863600000
N       1.572200205300000     18.354738834249186      1.654922799800000
N      -1.572646918800000     18.354278461249187      1.655001388000000
N      -0.000600136200000     15.630421439549187      1.654616752500000
N      -0.000613305500000     15.630422164849186      4.632539860100000
N      -1.572637530200000     18.354293091549188      4.632156576400000
N       1.572209192100000     18.354726204849186      4.632233623400000
N       3.777777132200000     17.080991208649188     10.919669184000000
N       5.349824101500000     14.357133729449187     10.919284195299999
N       2.204977672400000     14.356673714949187     10.919362906300000
C       1.343775974300000     13.860104834349187      7.325190489600000
C       6.210815726200000     13.860039844449187      7.325394374900000
C       3.777255745500000     18.075028189649185      7.324759048200000
C       2.433396884200000     18.851318335349184      1.038062041300000
C      -2.433642938600000     18.851365659649186      1.038266685500000
C      -0.000067702300000     14.636385858949186      1.037630291000000
C      -0.000076407100000     14.636386615049187      5.249526357600000
C      -2.433636502300000     18.851375682449188      5.248890894500000
C       2.433403130400000     18.851310412149186      5.249094470400000
C       3.777245080800000     18.075026824649186     11.536655623200000
C       6.210820246100000     13.860046833849186     11.536018999500000
C       1.343780900500000     13.860094333049187     11.536223670200000
Y       3.777300519000000     15.265210929249186     22.004964287934058
Y      -0.000122574100000     17.446202755349187     15.717835689634061
Co     -0.000004929900000     13.084565896249186     18.861399725934060
Co     -0.000005738700000     13.084564693549186     12.574271420134060
N       2.204969710100000     14.356689226449186     20.516308582634061
N       5.349817102600000     14.357122670049186     20.516386140334060
N       3.777792914900000     17.080992804249185     20.516003005934060
N       1.572200205300000     18.354738834249186     14.229179942134060
N      -1.572646918800000     18.354278461249187     14.229258530334061
N      -0.000600136200000     15.630421439549187     14.228873894834059
N      -0.000613305500000     15.630422164849186     17.206797002434058
N      -1.572637530200000     18.354293091549188     17.206413718734062
N       1.572209192100000     18.354726204849186     17.206490765734060
N       3.777777132200000     17.080991208649188     23.493926326334062
N       5.349824101500000     14.357133729449187     23.493541337634060
N       2.204977672400000     14.356673714949187     23.493620048634060
C       1.343775974300000     13.860104834349187     19.899447631934059
C       6.210815726200000     13.860039844449187     19.899651517234062
C       3.777255745500000     18.075028189649185     19.899016190534059
C       2.433396884200000     18.851318335349184     13.612319183634060
C      -2.433642938600000     18.851365659649186     13.612523827834060
C      -0.000067702300000     14.636385858949186     13.611887433334060
C      -0.000076407100000     14.636386615049187     17.823783499934059
C      -2.433636502300000     18.851375682449188     17.823148036834059
C       2.433403130400000     18.851310412149186     17.823351612734061
C       3.777245080800000     18.075026824649186     24.110912765534060
C       6.210820246100000     13.860046833849186     24.110276141834060
C       1.343780900500000     13.860094333049187     24.110480812534060
Y      18.886056618383492      2.180644327600000      9.430707145600000
Y      15.108633525283491      4.361636153700000      3.143578547300000
Co     15.108751169483492     -0.000000705400000      6.287142583600000
Co     15.108750360683491     -0.000001908100000      0.000014277800000
N      17.313725809483490      1.272122624800000      7.942051440300000
N      20.458573201983491      1.272556068400000      7.942128998000000
N      18.886549014283492      3.996426202600000      7.941745863600000
N      16.680956304683491      5.270172232600000      1.654922799800000
N      13.536109180583491      5.269711859600000      1.655001388000000
N      15.108155963183492      2.545854837900000      1.654616752500000
N      15.108142793883491      2.545855563200000      4.632539860100000
N      13.536118569183492      5.269726489900000      4.632156576400000
N      16.680965291483492      5.270159603200000      4.632233623400000
N      18.886533231583492      3.996424607000000     10.919669184000000
N      20.458580200883492      1.272567127800000     10.919284195299999
N      17.313733771783490      1.272107113300000     10.919362906300000
C      16.452532073683493      0.775538232700000      7.325190489600000
C      21.319571825583491      0.775473242800000      7.325394374900000
C      18.886011844883491      4.990461588000000      7.324759048200000
C      17.542152983583492      5.766751733700000      1.038062041300000
C      12.675113160783491      5.766799058000000      1.038266685500000
C      15.108688397083490      1.551819257300000      1.037630291000000
C      15.108679692283491      1.551820013400000      5.249526357600000
C      12.675119597083491      5.766809080800000      5.248890894500000
C      17.542159229783490      5.766743810500000      5.249094470400000
C      18.886001180183491      4.990460223000000     11.536655623200000
C      21.319576345483490      0.775480232200000     11.536018999500000
C      16.452536999883492      0.775527731400000     11.536223670200000
Y      18.886056618383492      2.180644327600000     22.004964287934058
Y      15.108633525283491      4.361636153700000     15.717835689634061
Co     15.108751169483492     -0.000000705400000     18.861399725934060
Co     15.108750360683491     -0.000001908100000     12.574271420134060
N      17.313725809483490      1.272122624800000     20.516308582634061
N      20.458573201983491      1.272556068400000     20.516386140334060
N      18.886549014283492      3.996426202600000     20.516003005934060
N      16.680956304683491      5.270172232600000     14.229179942134060
N      13.536109180583491      5.269711859600000     14.229258530334061
N      15.108155963183492      2.545854837900000     14.228873894834059
N      15.108142793883491      2.545855563200000     17.206797002434058
N      13.536118569183492      5.269726489900000     17.206413718734062
N      16.680965291483492      5.270159603200000     17.206490765734060
N      18.886533231583492      3.996424607000000     23.493926326334062
N      20.458580200883492      1.272567127800000     23.493541337634060
N      17.313733771783490      1.272107113300000     23.493620048634060
C      16.452532073683493      0.775538232700000     19.899447631934059
C      21.319571825583491      0.775473242800000     19.899651517234062
C      18.886011844883491      4.990461588000000     19.899016190534059
C      17.542152983583492      5.766751733700000     13.612319183634060
C      12.675113160783491      5.766799058000000     13.612523827834060
C      15.108688397083490      1.551819257300000     13.611887433334060
C      15.108679692283491      1.551820013400000     17.823783499934059
C      12.675119597083491      5.766809080800000     17.823148036834059
C      17.542159229783490      5.766743810500000     17.823351612734061
C      18.886001180183491      4.990460223000000     24.110912765534060
C      21.319576345483490      0.775480232200000     24.110276141834060
C      16.452536999883492      0.775527731400000     24.110480812534060
Y      15.108867593537619      8.722927628424593      9.430707145600000
Y      11.331444500437618     10.903919454524594      3.143578547300000
Co     11.331562144637619      6.542282595424593      6.287142583600000
Co     11.331561335837618      6.542281392724593      0.000014277800000
N      13.536536784637619      7.814405925624593      7.942051440300000
N      16.681384177137620      7.814839369224593      7.942128998000000
N      15.109359989437618     10.538709503424593      7.941745863600000
N      12.903767279837618     11.812455533424593      1.654922799800000
N       9.758920155737618     11.811995160424594      1.655001388000000
N      11.330966938337619      9.088138138724593      1.654616752500000
N      11.330953769037619      9.088138864024593      4.632539860100000
N       9.758929544337619     11.812009790724593      4.632156576400000
N      12.903776266637619     11.812442904024593      4.632233623400000
N      15.109344206737619     10.538707907824593     10.919669184000000
N      16.681391176037618      7.814850428624593     10.919284195299999
N      13.536544746937619      7.814390414124593     10.919362906300000
C      12.675343048837618      7.317821533524593      7.325190489600000
C      17.542382800737620      7.317756543624593      7.325394374900000
C      15.108822820037618     11.532744888824592      7.324759048200000
C      13.764963958737619     12.309035034524593      1.038062041300000
C       8.897924135937618     12.309082358824593      1.038266685500000
C      11.331499372237618      8.094102558124593      1.037630291000000
C      11.331490667437619      8.094103314224594      5.249526357600000
C       8.897930572237618     12.309092381624593      5.248890894500000
C      13.764970204937619     12.309027111324593      5.249094470400000
C      15.108812155337619     11.532743523824593     11.536655623200000
C      17.542387320637619      7.317763533024593     11.536018999500000
C      12.675347975037619      7.317811032224594     11.536223670200000
Y      15.108867593537619      8.722927628424593     22.004964287934058
Y      11.331444500437618     10.903919454524594     15.717835689634061
Co     11.331562144637619      6.542282595424593     18.861399725934060
Co     11.331561335837618      6.542281392724593     12.574271420134060
N      13.536536784637619      7.814405925624593     20.516308582634061
N      16.681384177137620      7.814839369224593     20.516386140334060
N      15.109359989437618     10.538709503424593     20.516003005934060
N      12.903767279837618     11.812455533424593     14.229179942134060
N       9.758920155737618     11.811995160424594     14.229258530334061
N      11.330966938337619      9.088138138724593     14.228873894834059
N      11.330953769037619      9.088138864024593     17.206797002434058
N       9.758929544337619     11.812009790724593     17.206413718734062
N      12.903776266637619     11.812442904024593     17.206490765734060
N      15.109344206737619     10.538707907824593     23.493926326334062
N      16.681391176037618      7.814850428624593     23.493541337634060
N      13.536544746937619      7.814390414124593     23.493620048634060
C      12.675343048837618      7.317821533524593     19.899447631934059
C      17.542382800737620      7.317756543624593     19.899651517234062
C      15.108822820037618     11.532744888824592     19.899016190534059
C      13.764963958737619     12.309035034524593     13.612319183634060
C       8.897924135937618     12.309082358824593     13.612523827834060
C      11.331499372237618      8.094102558124593     13.611887433334060
C      11.331490667437619      8.094103314224594     17.823783499934059
C       8.897930572237618     12.309092381624593     17.823148036834059
C      13.764970204937619     12.309027111324593     17.823351612734061
C      15.108812155337619     11.532743523824593     24.110912765534060
C      17.542387320637619      7.317763533024593     24.110276141834060
C      12.675347975037619      7.317811032224594     24.110480812534060
Y      11.331678568691746     15.265210929249186      9.430707145600000
Y       7.554255475591746     17.446202755349187      3.143578547300000
Co      7.554373119791745     13.084565896249186      6.287142583600000
Co      7.554372310991746     13.084564693549186      0.000014277800000
N       9.759347759791746     14.356689226449186      7.942051440300000
N      12.904195152291745     14.357122670049186      7.942128998000000
N      11.332170964591747     17.080992804249185      7.941745863600000
N       9.126578254991745     18.354738834249186      1.654922799800000
N       5.981731130891745     18.354278461249187      1.655001388000000
N       7.553777913491746     15.630421439549187      1.654616752500000
N       7.553764744191746     15.630422164849186      4.632539860100000
N       5.981740519491746     18.354293091549188      4.632156576400000
N       9.126587241791746     18.354726204849186      4.632233623400000
N      11.332155181891746     17.080991208649188     10.919669184000000
N      12.904202151191747     14.357133729449187     10.919284195299999
N       9.759355722091746     14.356673714949187     10.919362906300000
C       8.898154023991745     13.860104834349187      7.325190489600000
C      13.765193775891746     13.860039844449187      7.325394374900000
C      11.331633795191745     18.075028189649185      7.324759048200000
C       9.987774933891746     18.851318335349184      1.038062041300000
C       5.120735111091745     18.851365659649186      1.038266685500000
C       7.554310347391746     14.636385858949186      1.037630291000000
C       7.554301642591746     14.636386615049187      5.249526357600000
C       5.120741547391745     18.851375682449188      5.248890894500000
C       9.987781180091746     18.851310412149186      5.249094470400000
C      11.331623130491746     18.075026824649186     11.536655623200000
C      13.765198295791745     13.860046833849186     11.536018999500000
C       8.898158950191746     13.860094333049187     11.536223670200000
Y      11.331678568691746     15.265210929249186     22.004964287934058
Y       7.554255475591746     17.446202755349187     15.717835689634061
Co      7.554373119791745     13.084565896249186     18.861399725934060
Co      7.554372310991746     13.084564693549186     12.574271420134060
N       9.759347759791746     14.356689226449186     20.516308582634061
N      12.904195152291745     14.357122670049186     20.516386140334060
N      11.332170964591747     17.080992804249185     20.516003005934060
N       9.126578254991745     18.354738834249186     14.229179942134060
N       5.981731130891745     18.354278461249187     14.229258530334061
N       7.553777913491746     15.630421439549187     14.228873894834059
N       7.553764744191746     15.630422164849186     17.206797002434058
N       5.981740519491746     18.354293091549188     17.206413718734062
N       9.126587241791746     18.354726204849186     17.206490765734060
N      11.332155181891746     17.080991208649188     23.493926326334062
N      12.904202151191747     14.357133729449187     23.493541337634060
N       9.759355722091746     14.356673714949187     23.493620048634060
C       8.898154023991745     13.860104834349187     19.899447631934059
C      13.765193775891746     13.860039844449187     19.899651517234062
C      11.331633795191745     18.075028189649185     19.899016190534059
C       9.987774933891746     18.851318335349184     13.612319183634060
C       5.120735111091745     18.851365659649186     13.612523827834060
C       7.554310347391746     14.636385858949186     13.611887433334060
C       7.554301642591746     14.636386615049187     17.823783499934059
C       5.120741547391745     18.851375682449188     17.823148036834059
C       9.987781180091746     18.851310412149186     17.823351612734061
C      11.331623130491746     18.075026824649186     24.110912765534060
C      13.765198295791745     13.860046833849186     24.110276141834060
C       8.898158950191746     13.860094333049187     24.110480812534060
