28
Cell parameters [a, b, c, alpha, beta, gamma]: [  7.4296   7.4296  13.1115  90.      90.     120.    ] Created by SlothPy from File/Group './YCo.slt/cell'
Y        3.71480371       2.14473864       9.83362500
Y       -0.00000371       4.28948370       3.27787500
Co       0.00000000       0.00000000       6.55575000
Co       0.00000000       0.00000000       0.00000000
N        2.13006632       1.23022331       8.32449135
N        5.29916220       1.22957989       8.32449135
N        3.71517148       3.97441914       8.32449135
N        1.58473368       5.20399903       1.76874135
N       -1.58436220       5.20464245       1.76874135
N       -0.00037148       2.45980320       1.76874135
N        0.00037148       2.45980320       4.78700865
N       -1.58473368       5.20399903       4.78700865
N        1.58436220       5.20464245       4.78700865
N        3.71442852       3.97441914      11.34275865
N        5.29953368       1.23022331      11.34275865
N        2.13043780       1.22957989      11.34275865
C        1.32135436       0.76245535       7.64662680
C        6.10861712       0.76309877       7.64662680
C        3.71442852       4.90866822       7.64662680
C        2.39344564       5.67176699       1.09087680
C       -2.39381712       5.67112357       1.09087680
C        0.00037148       1.52555412       1.09087680
C       -0.00037148       1.52555412       5.46487320
C       -2.39344564       5.67176699       5.46487320
C        2.39381712       5.67112357       5.46487320
C        3.71517148       4.90866822      12.02062320
C        6.10824564       0.76245535      12.02062320
C        1.32098288       0.76309877      12.02062320
